Version 4
SHEET 1 880 680
WIRE 48 80 -144 80
WIRE -16 128 -144 128
WIRE 48 128 -16 128
WIRE 304 144 144 144
WIRE 304 160 304 144
WIRE 352 160 304 160
WIRE 48 176 -144 176
WIRE 352 208 -144 208
WIRE 544 224 448 224
WIRE 352 256 304 256
WIRE 48 288 -144 288
WIRE -16 336 -16 128
WIRE 48 336 -16 336
WIRE 304 352 304 256
WIRE 304 352 144 352
WIRE 48 384 -144 384
FLAG -144 80 A
IOPIN -144 80 In
FLAG -144 176 B
IOPIN -144 176 In
FLAG -144 288 C
IOPIN -144 288 In
FLAG -144 384 D
IOPIN -144 384 In
FLAG -144 128 S0
IOPIN -144 128 In
FLAG -144 208 S1
IOPIN -144 208 In
FLAG 96 64 Vdd
IOPIN 96 64 In
FLAG 96 272 Vdd
IOPIN 96 272 In
FLAG 400 144 Vdd
IOPIN 400 144 In
FLAG 96 192 GND
IOPIN 96 192 In
FLAG 96 400 GND
IOPIN 96 400 In
FLAG 400 272 GND
IOPIN 400 272 In
FLAG 544 224 Y
IOPIN 544 224 Out
SYMBOL 2_1mux 96 144 R0
SYMATTR InstName X1
SYMBOL 2_1mux 96 352 R0
SYMATTR InstName X2
SYMBOL 2_1mux 400 224 R0
SYMATTR InstName X3
