Version 4
SHEET 1 880 680
WIRE 160 0 -304 0
WIRE -304 16 -304 0
WIRE -304 16 -768 16
WIRE -768 32 -768 16
WIRE 160 32 160 0
WIRE 112 48 -608 48
WIRE 112 80 -160 80
WIRE 112 112 -96 112
WIRE 432 128 304 128
WIRE -608 144 -608 48
WIRE 112 144 -32 144
WIRE -32 160 -32 144
WIRE 432 160 304 160
WIRE 112 176 64 176
WIRE 64 192 64 176
WIRE 64 192 -16 192
WIRE 432 192 304 192
WIRE -16 208 -16 192
WIRE -16 208 -80 208
WIRE 112 208 16 208
WIRE -80 224 -80 208
WIRE -80 224 -384 224
WIRE 432 224 304 224
WIRE 112 240 48 240
WIRE 112 272 96 272
WIRE 16 336 16 208
WIRE 16 336 -256 336
WIRE 48 384 48 240
WIRE 48 384 -256 384
FLAG -32 240 0
FLAG -96 192 0
FLAG -160 160 0
FLAG -608 224 0
FLAG -768 112 0
FLAG 240 -48 0
FLAG -464 224 0
FLAG -336 336 0
FLAG 432 128 F1
IOPIN 432 128 Out
FLAG 432 160 F2
IOPIN 432 160 Out
FLAG 432 192 F3
IOPIN 432 192 Out
FLAG 432 224 F4
IOPIN 432 224 Out
FLAG 240 304 0
FLAG 160 384 0
FLAG -256 464 0
FLAG 96 352 0
SYMBOL universalshiftreg 224 224 R0
SYMATTR InstName X1
SYMBOL voltage -768 16 R0
WINDOW 123 0 0 Left 0
WINDOW 39 0 0 Left 0
SYMATTR InstName V1
SYMATTR Value PULSE(0 1.8 0 0.01n 0.01n 5n 10n 0)
SYMBOL voltage -608 128 R0
WINDOW 123 0 0 Left 0
WINDOW 39 0 0 Left 0
SYMATTR InstName V2
SYMATTR Value 1.8
SYMBOL voltage -160 64 R0
WINDOW 123 0 0 Left 0
WINDOW 39 0 0 Left 0
SYMATTR InstName V3
SYMATTR Value 1.8
SYMBOL voltage -96 96 R0
WINDOW 123 0 0 Left 0
WINDOW 39 0 0 Left 0
SYMATTR InstName V4
SYMATTR Value 0
SYMBOL voltage -32 144 R0
WINDOW 123 0 0 Left 0
WINDOW 39 0 0 Left 0
SYMATTR InstName V5
SYMATTR Value 0
SYMBOL voltage 240 48 R180
WINDOW 0 24 96 Left 2
WINDOW 3 24 16 Left 2
WINDOW 123 0 0 Left 0
WINDOW 39 0 0 Left 0
SYMATTR InstName V6
SYMATTR Value 1.8
SYMBOL voltage -368 224 R90
WINDOW 0 -32 56 VBottom 2
WINDOW 3 32 56 VTop 2
WINDOW 123 0 0 Left 0
WINDOW 39 0 0 Left 0
SYMATTR InstName V7
SYMATTR Value 0
SYMBOL voltage -240 336 R90
WINDOW 0 -32 56 VBottom 2
WINDOW 3 32 56 VTop 2
WINDOW 123 0 0 Left 0
WINDOW 39 0 0 Left 0
SYMATTR InstName V8
SYMATTR Value 1.8
SYMBOL voltage 160 288 R0
WINDOW 123 0 0 Left 0
WINDOW 39 0 0 Left 0
SYMATTR InstName V9
SYMATTR Value 1.8
SYMBOL voltage -256 368 R0
WINDOW 123 0 0 Left 0
WINDOW 39 0 0 Left 0
SYMATTR InstName V10
SYMATTR Value 0
SYMBOL voltage 96 256 R0
WINDOW 123 0 0 Left 0
WINDOW 39 0 0 Left 0
SYMATTR InstName V11
SYMATTR Value PULSE(0 1.8 0 0.1n 0.1n 20n 40n)
TEXT 328 -120 Left 2 !.tran 200n
TEXT 336 -72 Left 2 !.include tsmc018.lib
